!  Station Extraction Parameters.
!
!==============================================================================
!  Copyright (c) 2002-2013 The ROMS/TOMS Group                              ===
!========================================================= Hernan G. Arango ===
!                                                                             !
! Input parameters can be entered in ANY order, provided that the parameter   !
! KEYWORD (usually, upper case) is typed correctly followed by "="  or "=="   !
! symbols. Any comment lines are allowed and must begin with an exclamation   !
! mark (!) in column one.  Comments may  appear to the right of a parameter   !
! specification to improve documentation.  All comments will ignored during   !
! reading.  Blank lines are also allowed and ignored. Continuation lines in   !
! a parameter specification are allowed and must be preceded by a backslash   !
! (\).  In some instances, more than one value is required for a parameter.   !
! If fewer values are provided, the  last value  is assigned for the entire   !
! parameter array.  The multiplication symbol (*),  without blank spaces in   !
! between, is allowed for a parameter specification.  For example, in a two   !
! grids nested application:                                                   !
!                                                                             !
!    AKT_BAK == 2*1.0d-6  2*5.0d-6              ! m2/s                        !
!                                                                             !
! indicates that the first two entries of array AKT_BAK,  in fortran column-  !
! major order, will have the same value of "1.0d-6" for grid 1,  whereas the  !
! next two entries will have the same value of "5.0d-6" for grid 2.           !
!                                                                             !
! In multiple levels of nesting and/or multiple connected domains  step-ups,  !
! "Ngrids" entries are expected for some of these parameters.  In such case,  !
! the order of the entries for a parameter is extremely important.  It  must  !
! follow the same order (1:Ngrids) as in the state variable declaration. The  !
! USER may follow the above guidelines for specifying his/her values.  These  !
! parameters are marked by "==" plural symbol after the KEYWORD.              !
!                                                                             !
!==============================================================================
!
! Switch to control the writing of stations data within nested and/or multiple
! connected grids, [1:Ngrids].

   Lstations == T

! Logical switches (TRUE/FALSE) to activate writing of fields in STATION
! output file, [Sout(:,ng), ng=1, Ngrids].

Sout(idUvel) == T       ! u                  3D U-velocity
Sout(idVvel) == T       ! v                  3D V-velocity
Sout(idu3dE) == F       ! u_eastward         3D U-eastward at RHO-points
Sout(idv3dN) == F       ! v_northward        3D V-nortward at RHO-points
Sout(idWvel) == T       ! w                  3D W-velocity
Sout(idOvel) == T       ! omega              3D omega vertical velocity
Sout(idUbar) == T       ! ubar               2D U-velocity
Sout(idVbar) == T       ! vbar               2D V-velocity
Sout(idu2dE) == F       ! ubar_eastward      2D U-eastward  at RHO-points
Sout(idv2dN) == F       ! vbar_northward     2D V-northward at RHO-points
Sout(idFsur) == T       ! zeta               free-surface
Sout(idBath) == T       ! bath               time-dependent bathymetry

Sout(idTvar) == 16*T    ! all (NT) tracers

Sout(idUsms) == T       ! sustr              surface U-stress
Sout(idVsms) == T       ! svstr              surface V-stress
Sout(idUbms) == T       ! bustr              bottom U-stress
Sout(idVbms) == T       ! bvstr              bottom V-stress

Sout(idUbrs) == F       ! bustrc             bottom U-current stress
Sout(idVbrs) == F       ! bvstrc             bottom V-current stress
Sout(idUbws) == F       ! bustrw             bottom U-wave stress
Sout(idVbws) == F       ! bvstrw             bottom V-wave stress
Sout(idUbcs) == F       ! bustrcwmax         bottom max wave-current U-stress
Sout(idVbcs) == F       ! bvstrcwmax         bottom max wave-current V-stress

Sout(idUbot) == F       ! Ubot               bed wave orbital U-velocity
Sout(idVbot) == F       ! Vbot               bed wave orbital V-velocity
Sout(idUbur) == F       ! Ur                 bottom U-velocity above bed
Sout(idVbvr) == F       ! Vr                 bottom V-velocity above bed

Sout(idW2xx) == F       ! Sxx_bar            2D radiation stress, Sxx component
Sout(idW2xy) == F       ! Sxy_bar            2D radiation stress, Sxy component
Sout(idW2yy) == F       ! Syy_bar            2D radiation stress, Syy component
Sout(idU2rs) == F       ! Ubar_Rstress       2D radiation U-stress
Sout(idV2rs) == F       ! Vbar_Rstress       2D radiation V-stress
Sout(idU2Sd) == F       ! ubar_stokes        2D U-Stokes velocity
Sout(idV2Sd) == F       ! vbar_stokes        2D V-Stokes velocity

Sout(idW3xx) == F       ! Sxx                3D radiation stress, Sxx component
Sout(idW3xy) == F       ! Sxy                3D radiation stress, Sxy component
Sout(idW3yy) == F       ! Syy                3D radiation stress, Syy component
Sout(idW3zx) == F       ! Szx                3D radiation stress, Szx component
Sout(idW3zy) == F       ! Szy                3D radiation stress, Szy component
Sout(idU3rs) == F       ! u_Rstress          3D U-radiation stress
Sout(idV3rs) == F       ! v_Rstress          3D V-radiation stress
Sout(idU3Sd) == F       ! u_stokes           3D U-Stokes velocity
Sout(idV3Sd) == F       ! v_stokes           3D V-Stokes velocity

Sout(idWamp) == F       ! Hwave              wave height
Sout(idWlen) == F       ! Lwave              wave length
Sout(idWdir) == F       ! Dwave              wave direction
Sout(idWptp) == F       ! Pwave_top          wave surface period
Sout(idWpbt) == F       ! Pwave_bot          wave bottom period
Sout(idWorb) == F       ! Ub_swan            wave bottom orbital velocity
Sout(idWdis) == F       ! Wave_dissip        wave dissipation

Sout(idPair) == T       ! Pair               surface air pressure
Sout(idUair) == T       ! Uair               surface U-wind component
Sout(idVair) == T       ! Vair               surface V-wind component

Sout(idTsur) == T T     ! shflux, ssflux     surface net heat and salt flux
Sout(idLhea) == T       ! latent             latent heat flux
Sout(idShea) == T       ! sensible           sensible heat flux
Sout(idLrad) == T       ! lwrad              longwave radiation flux
Sout(idSrad) == T       ! swrad              shortwave radiation flux
Sout(idEmPf) == T       ! EminusP            E-P flux
Sout(idevap) == F       ! evaporation        evaporation rate
Sout(idrain) == F       ! rain               precipitation rate

Sout(idDano) == T       ! rho                density anomaly
Sout(idVvis) == T       ! AKv                vertical viscosity
Sout(idTdif) == T       ! AKt                vertical T-diffusion
Sout(idSdif) == T       ! AKs                vertical Salinity diffusion
Sout(idHsbl) == T       ! Hsbl               depth of surface boundary layer
Sout(idHbbl) == F       ! Hbbl               depth of bottom boundary layer
Sout(idMtke) == F       ! tke                turbulent kinetic energy
Sout(idMtls) == F       ! gls                turbulent length scale
Sout(idNPP)  == T       ! Bio_NPP            net primary productivity

! Logical switches (TRUE/FALSE) to activate writing of exposed sediment
! layer properties into STATIONS output file.  Currently, MBOTP properties
! are expected for the bottom boundary layer and/or sediment models:
!
! idBott( 1=isd50)   grain_diameter          mean grain diameter
! idBott( 2=idens)   grain_density           mean grain density
! idBott( 3=iwsed)   settling_vel            mean settling velocity
! idBott( 4=itauc)   erosion_stres           critical erosion stress
! idBott( 5=irlen)   ripple_length           ripple length
! idBott( 6=irhgt)   ripple_height           ripple height
! idBott( 7=ibwav)   bed_wave_amp            wave excursion amplitude
! idBott( 8=izdef)   Zo_def                  default bottom roughness
! idBott( 9=izapp)   Zo_app                  apparent bottom roughness
! idBott(10=izNik)   Zo_Nik                  Nikuradse bottom roughness
! idBott(11=izbio)   Zo_bio                  biological bottom roughness
! idBott(12=izbfm)   Zo_bedform              bed form bottom roughness
! idBott(13=izbld)   Zo_bedload              bed load bottom roughness
! idBott(14=izwbl)   Zo_wbl                  wave bottom roughness
! idBott(15=iactv)   active_layer_thickness  active layer thickness
! idBott(16=ishgt)   saltation               saltation height
!
!                                 1 1 1 1 1 1 1
!               1 2 3 4 5 6 7 8 9 0 1 2 3 4 5 6

Sout(idBott) == F F F F F F F F F F F F F F F F

! Logical switches for bio sediment variables.
Sout(idPONsed) == T
Sout(idOPALsed) == T
Sout(idDENITsed) == T
Sout(idPONbur) == T
Sout(idOPALbur) == T

! Logical switches (TRUE/FALSE) to activate writing of ice prognostic
! variables into HISTORY output file.
Sout(idUice) == T
Sout(idVice) == T
Sout(idAice) == T
Sout(idHice) == T
Sout(idTice) == T
Sout(idHsno) == T
Sout(idTimid) == T
Sout(idSfwat) == T
Sout(idTauiw) == F
Sout(idChuiw) == F
Sout(idAgeice) == T
Sout(idSig11) == T
Sout(idSig12) == T
Sout(idSig22) == T
Sout(idWfr) == T
! These two cause trouble...
Sout(idS0mk) == T
Sout(idT0mk) == T

! Number of stations to process in each nested grid.  These values are
! essential because the station arrays are dynamically allocated using
! these values, [1:Ngrids].

    NSTATION ==  20

! Station locations for all grids in any desired order.  The horizontal
! location for a particular station may be specified in terms of fractional
! (I,J) grid pairs (FLAG=0) or (longitude,latitude) grid pairs (FLAG=1).
! Here, FLAG is a special switch and may be used for multiple purposes.
! The GRID column indicates nested grid number to process. This value must
! be one in non-nested applications.  The COMMENT section is ignored during
! reading and may be used to help documentation.

POS =  GRID  FLAG      X-POS       Y-POS     COMMENT

1	1	134.0397795	6.788256124
1	1	134.0397795	6.860973137
1	1	134.0397795	6.93370851
1	1	134.0397795	7.006462244
1	1	134.0397795	7.079234338
1	1	134.1159153	6.788256124
1	1	134.1159153	6.860973137
1	1	134.1159153	6.93370851
1	1	134.1159153	7.006462244
1	1	134.1159153	7.079234338
1	1	134.192051	6.788256124
1	1	134.192051	6.860973137
1	1	134.192051	6.93370851
1	1	134.192051	7.006462244
1	1	134.192051	7.079234338
1	1	134.2681867	6.788256124
1	1	134.2681867	6.860973137
1	1	134.2681867	6.93370851
1	1	134.2681867	7.006462244
1	1	134.2681867	7.079234338
