--------------------------------------------------------------------------------
 Model Input Parameters:  ROMS/TOMS version 3.8  
                          Monday - May 31, 2021 - 12:27:47 PM
--------------------------------------------------------------------------------

 SD - 1km

 Operating system : Linux
 CPU/hardware     : x86_64
 Compiler system  : ifort
 Compiler command : /opt/scyld/openmpi/1.10.7/intel/bin/mpif90
 Compiler flags   : -fp-model precise -ip -O3 -traceback -check uninit 
 MPI Communicator : 0  PET size = 40

 Input Script     : 

 SVN Root URL     : 
 SVN Revision     : 

 Local Root       : /import/c1/VERTMIX/jgpender/coawst
 Header Dir       : /import/c1/VERTMIX/jgpender/coawst/SD_1km/InputFiles/compileInput
 Header file      : sd_1km.h
 Analytical Dir   : /import/c1/VERTMIX/jgpender/coawst/SD_1km/InputFiles/compileInput

 Resolution, Grid 01: 248x158x50,  Parallel Nodes: 40,  Tiling: 8x5


 Physical Parameters, Grid: 01
 =============================

      77760  ntimes            Number of timesteps for 3-D equations.
     20.000  dt                Timestep size (s) for 3-D equations.
         20  ndtfast           Number of timesteps for 2-D equations between
                                 each 3D timestep.
          1  ERstr             Starting ensemble/perturbation run number.
          1  ERend             Ending ensemble/perturbation run number.
         -1  nrrec             Number of restart records to read from disk.
          T  LcycleRST         Switch to recycle time-records in restart file.
       4320  nRST              Number of timesteps between the writing of data
                                 into restart fields.
          1  ninfo             Number of timesteps between print of information
                                 to standard output.
          T  ldefout           Switch to create a new output NetCDF file(s).
        540  nHIS              Number of timesteps between the writing fields
                                 into history file.
       4320  ndefHIS           Number of timesteps between creation of new
                                 history files.
        180  nQCK              Number of timesteps between the writing fields
                                 into quicksave file.
       4320  ndefQCK           Number of timesteps between creation of new
                                 brief snpashots files.
 2.0000E+00  nl_tnu2(01)       NLM Horizontal, harmonic mixing coefficient
                                 (m2/s) for tracer 01: temp
 2.0000E+00  nl_tnu2(02)       NLM Horizontal, harmonic mixing coefficient
                                 (m2/s) for tracer 02: salt
 3.0000E+00  nl_visc2          NLM Horizontal, harmonic mixing coefficient
                                 (m2/s) for momentum.
          F  LuvSponge         Turning OFF sponge on horizontal momentum.
          F  LtracerSponge(01) Turning OFF sponge on tracer 01: temp
          F  LtracerSponge(02) Turning OFF sponge on tracer 02: salt
 1.0000E-06  Akt_bak(01)       Background vertical mixing coefficient (m2/s)
                                 for tracer 01: temp
 1.0000E-06  Akt_bak(02)       Background vertical mixing coefficient (m2/s)
                                 for tracer 02: salt
 1.0000E-05  Akv_bak           Background vertical mixing coefficient (m2/s)
                                 for momentum.
 5.0000E-06  Akk_bak           Background vertical mixing coefficient (m2/s)
                                 for turbulent energy.
 5.0000E-06  Akp_bak           Background vertical mixing coefficient (m2/s)
                                 for turbulent generic statistical field.
      3.000  gls_p             GLS stability exponent.
      1.500  gls_m             GLS turbulent kinetic energy exponent.
     -1.000  gls_n             GLS turbulent length scale exponent.
 7.6000E-06  gls_Kmin          GLS minimum value of turbulent kinetic energy.
 1.0000E-12  gls_Pmin          GLS minimum value of dissipation.
 5.4770E-01  gls_cmu0          GLS stability coefficient.
 1.4400E+00  gls_c1            GLS shear production coefficient.
 1.9200E+00  gls_c2            GLS dissipation coefficient.
-4.0000E-01  gls_c3m           GLS stable buoyancy production coefficient.
 1.0000E+00  gls_c3p           GLS unstable buoyancy production coefficient.
 1.0000E+00  gls_sigk          GLS constant Schmidt number for TKE.
 1.3000E+00  gls_sigp          GLS constant Schmidt number for PSI.
   1400.000  charnok_alpha     Charnok factor for Zos calculation.
      0.500  zos_hsig_alpha    Factor for Zos calculation using Hsig(Awave).
      0.250  sz_alpha          Factor for Wave dissipation surface tke flux .
    100.000  crgban_cw         Factor for Craig/Banner surface tke flux.
      0.000  wec_alpha         WEC factor for roller/breaking energy distribution.
 3.0000E-04  rdrg              Linear bottom drag coefficient (m/s).
 3.0000E-03  rdrg2             Quadratic bottom drag coefficient.
 2.0000E-02  Zob               Bottom roughness (m).
 2.0000E-02  Zos               Surface roughness (m).
 2.0000E+00  blk_ZQ            Height (m) of surface air humidity measurement.
 2.0000E+00  blk_ZT            Height (m) of surface air temperature measurement.
 1.0000E+01  blk_ZW            Height (m) of surface winds measurement.
          1  lmd_Jwt           Jerlov water type.
          2  Vtransform        S-coordinate transformation equation.
          4  Vstretching       S-coordinate stretching function.
 7.0000E+00  theta_s           S-coordinate surface control parameter.
 2.0000E+00  theta_b           S-coordinate bottom  control parameter.
    250.000  Tcline            S-coordinate surface/bottom layer width (m) used
                                 in vertical coordinate stretching.
   1025.000  rho0              Mean density (kg/m3) for Boussinesq approximation.
  43829.000  dstart            Time-stamp assigned to model initialization (days).
19000101.00  time_ref          Reference time for units attribute (yyyymmdd.dd)
 3.6000E+02  Tnudg(01)         Nudging/relaxation time scale (days)
                                 for tracer 01: temp
 3.6000E+02  Tnudg(02)         Nudging/relaxation time scale (days)
                                 for tracer 02: salt
 9.0000E+01  Tnudg_SSS         Nudging/relaxation time scale (days)
                                 for sea surface salinity.
 3.6000E+02  Znudg             Nudging/relaxation time scale (days)
                                 for free-surface.
 3.6000E+02  M2nudg            Nudging/relaxation time scale (days)
                                 for 2D momentum.
 3.6000E+02  M3nudg            Nudging/relaxation time scale (days)
                                 for 3D momentum.
 1.2000E+02  obcfac            Factor between passive and active
                                 open boundary conditions.
          F  VolCons(1)        NLM western  edge boundary volume conservation.
          F  VolCons(2)        NLM southern edge boundary volume conservation.
          F  VolCons(3)        NLM eastern  edge boundary volume conservation.
          F  VolCons(4)        NLM northern edge boundary volume conservation.
     10.000  T0                Background potential temperature (C) constant.
     35.000  S0                Background salinity (PSU) constant.
      1.000  gamma2            Slipperiness variable: free-slip (1.0) or 
                                                      no-slip (-1.0).
          F  LuvSrc            Turning OFF momentum point Sources/Sinks.
          F  LwSrc             Turning OFF volume influx point Sources/Sinks.
          F  LtracerSrc(01)    Turning OFF point Sources/Sinks on tracer 01: temp
          F  LtracerSrc(02)    Turning OFF point Sources/Sinks on tracer 02: salt
          F  LsshCLM           Turning OFF processing of SSH climatology.
          F  Lm2CLM            Turning OFF processing of 2D momentum climatology.
          F  Lm3CLM            Turning OFF processing of 3D momentum climatology.
          F  LtracerCLM(01)    Turning OFF processing of climatology tracer 01: temp
          F  LtracerCLM(02)    Turning OFF processing of climatology tracer 02: salt
          F  LnudgeM2CLM       Turning OFF nudging of 2D momentum climatology.
          F  LnudgeM3CLM       Turning OFF nudging of 3D momentum climatology.
          F  LnudgeTCLM(01)    Turning OFF nudging of climatology tracer 01: temp
          F  LnudgeTCLM(02)    Turning OFF nudging of climatology tracer 02: salt

          T  Hout(idFsur)      Write out free-surface.
          T  Hout(idUbar)      Write out 2D U-momentum component.
          T  Hout(idVbar)      Write out 2D V-momentum component.
          T  Hout(idUvel)      Write out 3D U-momentum component.
          T  Hout(idVvel)      Write out 3D V-momentum component.
          T  Hout(idWvel)      Write out W-momentum component.
          T  Hout(idOvel)      Write out omega vertical velocity.
          T  Hout(idTvar)      Write out tracer 01: temp
          T  Hout(idTvar)      Write out tracer 02: salt

          T  Qout(idFsur)      Write out free-surface.
          T  Qout(idUbar)      Write out 2D U-momentum component.
          T  Qout(idVbar)      Write out 2D V-momentum component.
          T  Qout(idu2dE)      Write out 2D U-eastward  at RHO-points.
          T  Qout(idv2dN)      Write out 2D V-northward at RHO-points.
          T  Qout(idUsur)      Write out surface U-momentum component.
          T  Qout(idVsur)      Write out surface V-momentum component.
          T  Qout(idu3dE)      Write out 3D U-wastward  component at RHO-points.
          T  Qout(idv3dN)      Write out 3D V-northward component at RHO-points.
          T  Qout(idu3dE)      Write out surface U-wastward  component at RHO-points.
          T  Qout(idv3dN)      Write out surface V-northward component at RHO-points.
          T  Qout(idWvel)      Write out W-momentum component.
          T  Qout(idsurT)      Write out surface tracer 01: temp_sur
          T  Qout(idsurT)      Write out surface tracer 02: salt_sur
          T  Qout(idEBF)       Write out Ekman buoyancy flux.
          T  Qout(idStr2)      Write out surface strain.
          T  Qout(idRVsu)      Write out surface relative vorticity.
          T  Qout(idUsms)      Write out surface U-momentum stress.
          T  Qout(idVsms)      Write out surface V-momentum stress.
          T  Qout(idUbms)      Write out bottom U-momentum stress.
          T  Qout(idVbms)      Write out bottom V-momentum stress.
          T  Qout(idPair)      Write out surface air pressure.
          T  Qout(idUair)      Write out surface U-wind component.
          T  Qout(idVair)      Write out surface V-wind component.
          T  Qout(idTsur)      Write out surface net heat flux.
          T  Qout(idTsur)      Write out surface net salt flux.
          T  Qout(idSrad)      Write out shortwave radiation flux.
          T  Qout(idLrad)      Write out longwave radiation flux.
          T  Qout(idLhea)      Write out latent heat flux.
          T  Qout(idShea)      Write out sensible heat flux.
          T  Qout(idEmPf)      Write out E-P flux.
          T  Qout(idevap)      Write out evaporation rate.
          T  Qout(idrain)      Write out rain rate.

 Output/Input Files:

               Output Restart File:  ./netcdfOutput/sd_rst.nc
          Prefix for History Files:  ./netcdfOutput/sd_his
                   Input Grid File:  ../../InputFiles/Gridpak/SD_1km.nc
      Input Nonlinear Initial File:  ../SD_1km_2020_001_meso_noTides/netcdfOutput_days001_014/sd_rst.nc
             Input Forcing File 01:  ../../../GlobalDataFiles/MERRA_SD/MERRA_Pair_3hours_2019_SD.nc
                                     ../../../GlobalDataFiles/MERRA_SD/MERRA_Pair_3hours_2020_SD.nc
             Input Forcing File 02:  ../../../GlobalDataFiles/MERRA_SD/MERRA_Qair_3hours_2019_SD.nc
                                     ../../../GlobalDataFiles/MERRA_SD/MERRA_Qair_3hours_2020_SD.nc
             Input Forcing File 03:  ../../../GlobalDataFiles/MERRA_SD/MERRA_Tair_3hours_2019_SD.nc
                                     ../../../GlobalDataFiles/MERRA_SD/MERRA_Tair_3hours_2020_SD.nc
             Input Forcing File 04:  ../../../GlobalDataFiles/MERRA_SD/MERRA_rain_3hours_2019_SD.nc
                                     ../../../GlobalDataFiles/MERRA_SD/MERRA_rain_3hours_2020_SD.nc
             Input Forcing File 05:  ../../../GlobalDataFiles/MERRA_SD/MERRA_swrad_3hours_2019_SD.nc
                                     ../../../GlobalDataFiles/MERRA_SD/MERRA_swrad_3hours_2020_SD.nc
             Input Forcing File 06:  ../../../GlobalDataFiles/MERRA_SD/MERRA_Uwind_3hours_2019_SD.nc
                                     ../../../GlobalDataFiles/MERRA_SD/MERRA_Uwind_3hours_2020_SD.nc
             Input Forcing File 07:  ../../../GlobalDataFiles/MERRA_SD/MERRA_Vwind_3hours_2019_SD.nc
                                     ../../../GlobalDataFiles/MERRA_SD/MERRA_Vwind_3hours_2020_SD.nc
             Input Forcing File 08:  ../../../GlobalDataFiles/MERRA_SD/MERRA_lwrad_down_3hours_2019_SD.nc
                                     ../../../GlobalDataFiles/MERRA_SD/MERRA_lwrad_down_3hours_2020_SD.nc
             Input Forcing File 09:  ../../../GlobalDataFiles/sss_fill_2004.nc
               Input Boundary File:  ../../InputFiles/BC_IC_CMEMS_2020/CMEMS_2020_bdry_SD_1km.nc
  ROMS I/O variables Metadata File:  ../../../ROMS/varinfo_LOCAL.dat

 Tile partition information for Grid 01:  248x158x50  tiling: 8x5

     tile     Istr     Iend     Jstr     Jend     Npts

 Number of tracers:            2
        0        1       31        1       31    48050
        1       32       62        1       31    48050
        2       63       93        1       31    48050
        3       94      124        1       31    48050
        4      125      155        1       31    48050
        5      156      186        1       31    48050
        6      187      217        1       31    48050
        7      218      248        1       31    48050
        8        1       31       32       63    49600
        9       32       62       32       63    49600
       10       63       93       32       63    49600
       11       94      124       32       63    49600
       12      125      155       32       63    49600
       13      156      186       32       63    49600
       14      187      217       32       63    49600
       15      218      248       32       63    49600
       16        1       31       64       95    49600
       17       32       62       64       95    49600
       18       63       93       64       95    49600
       19       94      124       64       95    49600
       20      125      155       64       95    49600
       21      156      186       64       95    49600
       22      187      217       64       95    49600
       23      218      248       64       95    49600
       24        1       31       96      127    49600
       25       32       62       96      127    49600
       26       63       93       96      127    49600
       27       94      124       96      127    49600
       28      125      155       96      127    49600
       29      156      186       96      127    49600
       30      187      217       96      127    49600
       31      218      248       96      127    49600
       32        1       31      128      158    48050
       33       32       62      128      158    48050
       34       63       93      128      158    48050
       35       94      124      128      158    48050
       36      125      155      128      158    48050
       37      156      186      128      158    48050
       38      187      217      128      158    48050
       39      218      248      128      158    48050

 Tile minimum and maximum fractional coordinates for Grid 01:
   (interior points only)

     tile     Xmin     Xmax     Ymin     Ymax     grid

        0     0.50    31.50     0.50    31.50  RHO-points
        1    31.50    62.50     0.50    31.50  RHO-points
        2    62.50    93.50     0.50    31.50  RHO-points
        3    93.50   124.50     0.50    31.50  RHO-points
        4   124.50   155.50     0.50    31.50  RHO-points
        5   155.50   186.50     0.50    31.50  RHO-points
        6   186.50   217.50     0.50    31.50  RHO-points
        7   217.50   248.50     0.50    31.50  RHO-points
        8     0.50    31.50    31.50    63.50  RHO-points
        9    31.50    62.50    31.50    63.50  RHO-points
       10    62.50    93.50    31.50    63.50  RHO-points
       11    93.50   124.50    31.50    63.50  RHO-points
       12   124.50   155.50    31.50    63.50  RHO-points
       13   155.50   186.50    31.50    63.50  RHO-points
       14   186.50   217.50    31.50    63.50  RHO-points
       15   217.50   248.50    31.50    63.50  RHO-points
       16     0.50    31.50    63.50    95.50  RHO-points
       17    31.50    62.50    63.50    95.50  RHO-points
       18    62.50    93.50    63.50    95.50  RHO-points
       19    93.50   124.50    63.50    95.50  RHO-points
       20   124.50   155.50    63.50    95.50  RHO-points
       21   155.50   186.50    63.50    95.50  RHO-points
       22   186.50   217.50    63.50    95.50  RHO-points
       23   217.50   248.50    63.50    95.50  RHO-points
       24     0.50    31.50    95.50   127.50  RHO-points
       25    31.50    62.50    95.50   127.50  RHO-points
       26    62.50    93.50    95.50   127.50  RHO-points
       27    93.50   124.50    95.50   127.50  RHO-points
       28   124.50   155.50    95.50   127.50  RHO-points
       29   155.50   186.50    95.50   127.50  RHO-points
       30   186.50   217.50    95.50   127.50  RHO-points
       31   217.50   248.50    95.50   127.50  RHO-points
       32     0.50    31.50   127.50   158.50  RHO-points
       33    31.50    62.50   127.50   158.50  RHO-points
       34    62.50    93.50   127.50   158.50  RHO-points
       35    93.50   124.50   127.50   158.50  RHO-points
       36   124.50   155.50   127.50   158.50  RHO-points
       37   155.50   186.50   127.50   158.50  RHO-points
       38   186.50   217.50   127.50   158.50  RHO-points
       39   217.50   248.50   127.50   158.50  RHO-points

        0     1.00    31.50     0.50    31.50    U-points
        1    31.50    62.50     0.50    31.50    U-points
        2    62.50    93.50     0.50    31.50    U-points
        3    93.50   124.50     0.50    31.50    U-points
        4   124.50   155.50     0.50    31.50    U-points
        5   155.50   186.50     0.50    31.50    U-points
        6   186.50   217.50     0.50    31.50    U-points
        7   217.50   248.00     0.50    31.50    U-points
        8     1.00    31.50    31.50    63.50    U-points
        9    31.50    62.50    31.50    63.50    U-points
       10    62.50    93.50    31.50    63.50    U-points
       11    93.50   124.50    31.50    63.50    U-points
       12   124.50   155.50    31.50    63.50    U-points
       13   155.50   186.50    31.50    63.50    U-points
       14   186.50   217.50    31.50    63.50    U-points
       15   217.50   248.00    31.50    63.50    U-points
       16     1.00    31.50    63.50    95.50    U-points
       17    31.50    62.50    63.50    95.50    U-points
       18    62.50    93.50    63.50    95.50    U-points
       19    93.50   124.50    63.50    95.50    U-points
       20   124.50   155.50    63.50    95.50    U-points
       21   155.50   186.50    63.50    95.50    U-points
       22   186.50   217.50    63.50    95.50    U-points
       23   217.50   248.00    63.50    95.50    U-points
       24     1.00    31.50    95.50   127.50    U-points
       25    31.50    62.50    95.50   127.50    U-points
       26    62.50    93.50    95.50   127.50    U-points
       27    93.50   124.50    95.50   127.50    U-points
       28   124.50   155.50    95.50   127.50    U-points
       29   155.50   186.50    95.50   127.50    U-points
       30   186.50   217.50    95.50   127.50    U-points
       31   217.50   248.00    95.50   127.50    U-points
       32     1.00    31.50   127.50   158.50    U-points
       33    31.50    62.50   127.50   158.50    U-points
       34    62.50    93.50   127.50   158.50    U-points
       35    93.50   124.50   127.50   158.50    U-points
       36   124.50   155.50   127.50   158.50    U-points
       37   155.50   186.50   127.50   158.50    U-points
       38   186.50   217.50   127.50   158.50    U-points
       39   217.50   248.00   127.50   158.50    U-points

        0     0.50    31.50     1.00    31.50    V-points
        1    31.50    62.50     1.00    31.50    V-points
        2    62.50    93.50     1.00    31.50    V-points
        3    93.50   124.50     1.00    31.50    V-points
        4   124.50   155.50     1.00    31.50    V-points
        5   155.50   186.50     1.00    31.50    V-points
        6   186.50   217.50     1.00    31.50    V-points
        7   217.50   248.50     1.00    31.50    V-points
        8     0.50    31.50    31.50    63.50    V-points
        9    31.50    62.50    31.50    63.50    V-points
       10    62.50    93.50    31.50    63.50    V-points
       11    93.50   124.50    31.50    63.50    V-points
       12   124.50   155.50    31.50    63.50    V-points
       13   155.50   186.50    31.50    63.50    V-points
       14   186.50   217.50    31.50    63.50    V-points
       15   217.50   248.50    31.50    63.50    V-points
       16     0.50    31.50    63.50    95.50    V-points
       17    31.50    62.50    63.50    95.50    V-points
       18    62.50    93.50    63.50    95.50    V-points
       19    93.50   124.50    63.50    95.50    V-points
       20   124.50   155.50    63.50    95.50    V-points
       21   155.50   186.50    63.50    95.50    V-points
       22   186.50   217.50    63.50    95.50    V-points
       23   217.50   248.50    63.50    95.50    V-points
       24     0.50    31.50    95.50   127.50    V-points
       25    31.50    62.50    95.50   127.50    V-points
       26    62.50    93.50    95.50   127.50    V-points
       27    93.50   124.50    95.50   127.50    V-points
       28   124.50   155.50    95.50   127.50    V-points
       29   155.50   186.50    95.50   127.50    V-points
       30   186.50   217.50    95.50   127.50    V-points
       31   217.50   248.50    95.50   127.50    V-points
       32     0.50    31.50   127.50   158.00    V-points
       33    31.50    62.50   127.50   158.00    V-points
       34    62.50    93.50   127.50   158.00    V-points
       35    93.50   124.50   127.50   158.00    V-points
       36   124.50   155.50   127.50   158.00    V-points
       37   155.50   186.50   127.50   158.00    V-points
       38   186.50   217.50   127.50   158.00    V-points
       39   217.50   248.50   127.50   158.00    V-points

 Maximum halo size in XI and ETA directions:

               HaloSizeI(1) =      86
               HaloSizeJ(1) =      88
                TileSide(1) =      38
                TileSize(1) =    1406


 Tracer Advection Scheme: NLM
 ========================

 Variable               Grid  Horizontal         Vertical
 ---------              ----  ------------       ------------

 temp                     1   Upstream3          Centered4

 salt                     1   Upstream3          Centered4

 Akima4     Fourth-order Akima advection
 Centered2  Second-order centered differences advection
 Centered4  Fourth-order centered differences advection
 HSIMT      Third High-order Spatial Inteporlation at Middle Time Advection with TVD limiter
 MPDATA     Multidimensional Positive Definite Advection Algorithm, recursive method
 Splines    Conservative Parabolic Splines Reconstruction Advection (only vertical; not recommended)
 Split_U3   Split third-order Upstream Advection
 Upstream3  Third-order Upstream-biased Advection (only horizontal)


 Lateral Boundary Conditions: NLM
 ============================

 Variable               Grid  West Edge    South Edge   East Edge    North Edge
 ---------              ----  ----------   ----------   ----------   ----------

 zeta                     1   Chapman Exp  Chapman Exp  Closed       Chapman Exp

 ubar                     1   Shchepetkin  Shchepetkin  Closed       Shchepetkin

 vbar                     1   Shchepetkin  Shchepetkin  Closed       Shchepetkin

 u                        1   Rad + Nud    Rad + Nud    Closed       Rad + Nud

 v                        1   Rad + Nud    Rad + Nud    Closed       Rad + Nud

 temp                     1   Rad + Nud    Rad + Nud    Closed       Rad + Nud

 salt                     1   Rad + Nud    Rad + Nud    Closed       Rad + Nud

 tke                      1   Closed       Closed       Closed       Closed

 Activated C-preprocessing Options:

 SD                      SD - 1km
 ALBEDO_CSIM             Albedo computed according to CSIM3.
 ALBEDO_CURVE            Shortwave radiation adjusted by albedo curve.
 ANA_BSFLUX              Analytical kinematic bottom salinity flux
 ANA_BTFLUX              Analytical kinematic bottom temperature flux
 ASSUMED_SHAPE           Using assumed-shape arrays
 !BOUNDARY_ALLGATHER     Using mpi_allreduce in mp_boundary routine
 BULK_FLUXES             Surface bulk fluxes parameterization
 CCSM_FLUXES             Surface bulk fluxes parameterization.
 !COLLECT_ALL...         Using mpi_isend/mpi_recv in mp_collect routine
 CORE_FORCING            Humidity from CORE forcing files.
 CURVGRID                Orthogonal curvilinear grid
 DIFF_GRID               Horizontal diffusion coefficient scaled by grid size
 DJ_GRADPS               Parabolic Splines density Jacobian (Shchepetkin, 2002)
 DOUBLE_PRECISION        Double precision arithmetic numerical kernel.
 EMINUSP                 Compute Salt Flux using E-P
 GLOBAL_PERIODIC         Globally periodic domain when interpolating forcing.
 GLS_MIXING              Generic Length-Scale turbulence closure
 KANTHA_CLAYSON          Kantha and Clayson stability function formulation
 LONGWAVE_OUT            Compute outgoing longwave radiation internally
 MASKING                 Land/Sea masking
 MIX_GEO_TS              Mixing of tracers along geopotential surfaces
 MIX_S_UV                Mixing of momentum along constant S-surfaces
 MPI                     MPI distributed-memory configuration
 NONLINEAR               Nonlinear Model
 NONLIN_EOS              Nonlinear Equation of State for seawater
 NO_WRITE_GRID           Not Writing grid arrays into NetCDF ouput files
 N2S2_HORAVG             Horizontal smoothing of buoyancy and shear
 PERFECT_RESTART         Processing perfect restart variables
 POWER_LAW               Power-law shape time-averaging barotropic filter
 PROFILE                 Time profiling activated
 K_GSCHEME               Third-order upstream advection of TKE fields
 RADIATION_2D            Use tangential phase speed in radiation conditions
 REDUCE_ALLGATHER        Using mpi_allgather in mp_reduce routine
 RI_SPLINES              Parabolic Spline Reconstruction for Richardson Number
 !RST_SINGLE             Double precision fields in restart NetCDF file
 SALINITY                Using salinity
 SCORRECTION             Surface salinity flux correction
 SOLAR_SOURCE            Solar Radiation Source Term
 SOLVE3D                 Solving 3D Primitive Equations
 TS_DIF2                 Harmonic mixing of tracers
 UV_ADV                  Advection of momentum
 UV_COR                  Coriolis term
 UV_U3HADVECTION         Third-order upstream horizontal advection of 3D momentum
 UV_C4VADVECTION         Fourth-order centered vertical advection of momentum
 UV_QDRAG                Quadratic bottom stress
 UV_VIS2                 Harmonic mixing of momentum
 VAR_RHO_2D              Variable density barotropic mode
 VISC_GRID               Horizontal viscosity coefficient scaled by grid size
 VISC_3DCOEF             Horizontal, time-dependent 3D viscosity coefficient
 WTYPE_GRID              Spatially varying Jerlov water type index

 Process Information:

 Node #   12 (pid=   15154) is active.
 Node #   11 (pid=   15147) is active.
 Node #    5 (pid=   15122) is active.
 Node #   13 (pid=   15156) is active.
 Node #   29 (pid=   15112) is active.
 Node #   37 (pid=   15136) is active.
 Node #   21 (pid=   15126) is active.
 Node #    3 (pid=   15116) is active.
 Node #   19 (pid=   15120) is active.
 Node #   27 (pid=   15107) is active.
 Node #   35 (pid=   15129) is active.
 Node #    4 (pid=   15119) is active.
 Node #   28 (pid=   15108) is active.
 Node #   36 (pid=   15132) is active.
 Node #   16 (pid=   15111) is active.
 Node #   20 (pid=   15124) is active.
 Node #    6 (pid=   15125) is active.
 Node #   14 (pid=   15106) is active.
 Node #   22 (pid=   15130) is active.
 Node #   38 (pid=   15145) is active.
 Node #   30 (pid=   15115) is active.
 Node #   15 (pid=   15109) is active.
 Node #   18 (pid=   15118) is active.
 Node #    0 (pid=   15105) is active.
 Node #    8 (pid=   15131) is active.
 Node #   32 (pid=   15121) is active.
 Node #   24 (pid=   15137) is active.
 Node #    7 (pid=   15128) is active.
 Node #   39 (pid=   15151) is active.
 Node #   31 (pid=   15117) is active.
 Node #   23 (pid=   15133) is active.
 Node #    2 (pid=   15113) is active.
 Node #   10 (pid=   15138) is active.
 Node #   26 (pid=   15158) is active.
 Node #   34 (pid=   15127) is active.
 Node #    9 (pid=   15134) is active.
 Node #    1 (pid=   15110) is active.
 Node #   25 (pid=   15150) is active.
 Node #   17 (pid=   15114) is active.
 Node #   33 (pid=   15123) is active.

 INITIAL: Configuring and initializing forward nonlinear model ...
 *******

    GET_GRID    - bathymetry at RHO-points: h
                   (Grid = 01, File: ../../InputFiles/Gridpak/SD_1km.nc)
                   (Min =  1.00000000E+01 Max =  2.48774117E+03)
    GET_GRID    - Coriolis parameter at RHO-points: f
                   (Grid = 01, File: ../../InputFiles/Gridpak/SD_1km.nc)
                   (Min =  7.68336919E-05 Max =  8.19383822E-05)
    GET_GRID    - reciprocal XI-grid spacing: pm
                   (Grid = 01, File: ../../InputFiles/Gridpak/SD_1km.nc)
                   (Min =  9.98015025E-04 Max =  1.00016212E-03)
    GET_GRID    - reciprocal ETA-grid spacing: pn
                   (Grid = 01, File: ../../InputFiles/Gridpak/SD_1km.nc)
                   (Min =  1.00042742E-03 Max =  1.00254236E-03)
    GET_GRID    - XI-derivative of inverse metric factor pn: dndx
                   (Grid = 01, File: ../../InputFiles/Gridpak/SD_1km.nc)
                   (Min = -9.26983979E-01 Max =  7.20420145E-01)
    GET_GRID    - ETA-derivative of inverse metric factor pm: dmde
                   (Grid = 01, File: ../../InputFiles/Gridpak/SD_1km.nc)
                   (Min = -7.00850805E-01 Max =  7.70290456E-01)
    GET_GRID    - x-location of RHO-points: x-rho
                   (Grid = 01, File: ../../InputFiles/Gridpak/SD_1km.nc)
                   (Min = -1.70852883E+05 Max =  1.24527079E+05)
    GET_GRID    - y-location of RHO-points: y_rho
                   (Grid = 01, File: ../../InputFiles/Gridpak/SD_1km.nc)
                   (Min = -9.97635007E+06 Max = -9.71078710E+06)
    GET_GRID    - x-location of PSI-points: x_psi
                   (Grid = 01, File: ../../InputFiles/Gridpak/SD_1km.nc)
                   (Min = -1.70165453E+05 Max =  1.23839649E+05)
    GET_GRID    - y-location of PSI-points: y-psi
                   (Grid = 01, File: ../../InputFiles/Gridpak/SD_1km.nc)
                   (Min = -9.97566264E+06 Max = -9.71147453E+06)
    GET_GRID    - x-location of U-points: x_u
                   (Grid = 01, File: ../../InputFiles/Gridpak/SD_1km.nc)
                   (Min = -1.70426343E+05 Max =  1.24100539E+05)
    GET_GRID    - y-location of U-points: y_u
                   (Grid = 01, File: ../../InputFiles/Gridpak/SD_1km.nc)
                   (Min = -9.97608918E+06 Max = -9.71104799E+06)
    GET_GRID    - x-location of V-points: x_v
                   (Grid = 01, File: ../../InputFiles/Gridpak/SD_1km.nc)
                   (Min = -1.70591993E+05 Max =  1.24266189E+05)
    GET_GRID    - y-location of V-points: y_v
                   (Grid = 01, File: ../../InputFiles/Gridpak/SD_1km.nc)
                   (Min = -9.97592353E+06 Max = -9.71121364E+06)
    GET_GRID    - latitude of RHO-points lat_rho
                   (Grid = 01, File: ../../InputFiles/Gridpak/SD_1km.nc)
                   (Min =  3.17913303E+01 Max =  3.41823540E+01)
    GET_GRID    - longitude of RHO-points: lon_rho
                   (Grid = 01, File: ../../InputFiles/Gridpak/SD_1km.nc)
                   (Min =  2.39667603E+02 Max =  2.42834839E+02)
    GET_GRID    - latitude of PSI-points lat_psi
                   (Grid = 01, File: ../../InputFiles/Gridpak/SD_1km.nc)
                   (Min =  3.17975235E+01 Max =  3.41761818E+01)
    GET_GRID    - longitude of PSI-points: lon_psi
                   (Grid = 01, File: ../../InputFiles/Gridpak/SD_1km.nc)
                   (Min =  2.39675003E+02 Max =  2.42827499E+02)
    GET_GRID    - latitude of U-points: lat_u
                   (Grid = 01, File: ../../InputFiles/Gridpak/SD_1km.nc)
                   (Min =  3.17937088E+01 Max =  3.41800270E+01)
    GET_GRID    - longitude of U-points: lon_u
                   (Grid = 01, File: ../../InputFiles/Gridpak/SD_1km.nc)
                   (Min =  2.39672127E+02 Max =  2.42830238E+02)
    GET_GRID    - latitude of V-points: lat_v
                   (Grid = 01, File: ../../InputFiles/Gridpak/SD_1km.nc)
                   (Min =  3.17951450E+01 Max =  3.41785088E+01)
    GET_GRID    - longitude of V-points: lon_v
                   (Grid = 01, File: ../../InputFiles/Gridpak/SD_1km.nc)
                   (Min =  2.39670479E+02 Max =  2.42832100E+02)
    GET_GRID    - mask on RHO-points: mask_rho
                   (Grid = 01, File: ../../InputFiles/Gridpak/SD_1km.nc)
                   (Min =  0.00000000E+00 Max =  1.00000000E+00)
    GET_GRID    - mask on U-points: mask_u
                   (Grid = 01, File: ../../InputFiles/Gridpak/SD_1km.nc)
                   (Min =  0.00000000E+00 Max =  1.00000000E+00)
    GET_GRID    - mask on V-points: mask_v
                   (Grid = 01, File: ../../InputFiles/Gridpak/SD_1km.nc)
                   (Min =  0.00000000E+00 Max =  1.00000000E+00)
    GET_GRID    - mask on PSI-points: mask_psi
                   (Grid = 01, File: ../../InputFiles/Gridpak/SD_1km.nc)
                   (Min =  0.00000000E+00 Max =  1.00000000E+00)
    GET_GRID    - angle between XI-axis and EAST: angler
                   (Grid = 01, File: ../../InputFiles/Gridpak/SD_1km.nc)
                   (Min =  5.36126158E-01 Max =  5.66380774E-01)
    GET_GRID    - Jerlov water type: wtype_grid
                   (Grid = 01, File: ../../InputFiles/Gridpak/SD_1km.nc)
                   (Min =  1.00000000E+00 Max =  5.00000000E+00)

 Vertical S-coordinate System, Grid 01:

 level   S-coord     Cs-curve   Z   at hmin       at hc    half way     at hmax

    50   0.0000000   0.0000000        0.000       0.000       0.000       0.000
    49  -0.0200000  -0.0000415       -0.192      -2.505      -4.209      -4.637
    48  -0.0400000  -0.0001667       -0.385      -5.021      -8.506      -9.464
    47  -0.0600000  -0.0003782       -0.577      -7.547     -12.892     -14.485
    46  -0.0800000  -0.0006800       -0.769     -10.085     -17.372     -19.711
    45  -0.1000000  -0.0010779       -0.962     -12.635     -21.952     -25.154
    44  -0.1200000  -0.0015797       -1.154     -15.197     -26.640     -30.831
    43  -0.1400000  -0.0021950       -1.347     -17.774     -31.446     -36.766
    42  -0.1600000  -0.0029358       -1.540     -20.367     -36.383     -42.984
    41  -0.1800000  -0.0038164       -1.732     -22.977     -41.466     -49.518
    40  -0.2000000  -0.0048536       -1.925     -25.607     -46.711     -56.406
    39  -0.2200000  -0.0060675       -2.118     -28.258     -52.140     -63.694
    38  -0.2400000  -0.0074812       -2.311     -30.935     -57.777     -71.433
    37  -0.2600000  -0.0091216       -2.504     -33.640     -63.650     -79.685
    36  -0.2800000  -0.0110200       -2.697     -36.378     -69.792     -88.519
    35  -0.3000000  -0.0132122       -2.890     -39.152     -76.239     -98.018
    34  -0.3200000  -0.0157395       -3.083     -41.967     -83.035    -108.275
    33  -0.3400000  -0.0186489       -3.276     -44.831     -90.228    -119.395
    32  -0.3600000  -0.0219945       -3.470     -47.749     -97.875    -131.502
    31  -0.3800000  -0.0258377       -3.664     -50.730    -106.041    -144.733
    30  -0.4000000  -0.0302484       -3.858     -53.781    -114.796    -159.247
    29  -0.4200000  -0.0353059       -4.052     -56.913    -124.225    -175.223
    28  -0.4400000  -0.0410999       -4.247     -60.137    -134.420    -192.864
    27  -0.4600000  -0.0477314       -4.441     -63.466    -145.487    -212.399
    26  -0.4800000  -0.0553142       -4.637     -66.914    -157.543    -234.084
    25  -0.5000000  -0.0639753       -4.832     -70.497    -170.722    -258.206
    24  -0.5200000  -0.0738562       -5.028     -74.232    -185.169    -285.086
    23  -0.5400000  -0.0851137       -5.225     -78.139    -201.050    -315.078
    22  -0.5600000  -0.0979200       -5.422     -82.240    -218.542    -348.571
    21  -0.5800000  -0.1124633       -5.620     -86.558    -237.841    -385.990
    20  -0.6000000  -0.1289464       -5.819     -91.118    -259.159    -427.795
    19  -0.6200000  -0.1475861       -6.018     -95.948    -282.721    -474.475
    18  -0.6400000  -0.1686101       -6.219    -101.076    -308.764    -526.544
    17  -0.6600000  -0.1922531       -6.420    -106.532    -337.532    -584.534
    16  -0.6800000  -0.2187507       -6.623    -112.344    -369.270    -648.978
    15  -0.7000000  -0.2483317       -6.826    -118.541    -404.217    -720.391
    14  -0.7200000  -0.2812062       -7.031    -125.151    -442.592    -799.249
    13  -0.7400000  -0.3175523       -7.238    -132.194    -484.578    -885.956
    12  -0.7600000  -0.3574982       -7.445    -139.687    -530.311    -980.800
    11  -0.7800000  -0.4011006       -7.654    -147.638    -579.848   -1083.910
    10  -0.8000000  -0.4483212       -7.865    -156.040    -633.151   -1195.198
     9  -0.8200000  -0.4989991       -8.077    -164.875    -690.050   -1314.303
     8  -0.8400000  -0.5528242       -8.290    -174.103    -750.225   -1440.522
     7  -0.8600000  -0.6093116       -8.504    -183.664    -813.170   -1572.759
     6  -0.8800000  -0.6677823       -8.718    -193.473    -878.179   -1709.479
     5  -0.9000000  -0.7273553       -8.934    -203.419    -944.335   -1848.692
     4  -0.9200000  -0.7869567       -9.149    -213.370   -1010.520   -1987.968
     3  -0.9400000  -0.8453515       -9.364    -223.169   -1075.450   -2124.517
     2  -0.9600000  -0.9012040       -9.577    -232.651   -1137.734   -2255.319
     1  -0.9800000  -0.9531675       -9.790    -241.646   -1195.972   -2377.330
     0  -1.0000000  -1.0000000      -10.000    -250.000   -1248.871   -2487.741

 Time Splitting Weights for Grid 01:    ndtfast =  20    nfast =  29
 ==================================

    Primary            Secondary            Accumulated to Current Step

  1-0.0009651193358779 0.0500000000000000-0.0009651193358779 0.0500000000000000
  2-0.0013488780126037 0.0500482559667939-0.0023139973484816 0.1000482559667939
  3-0.0011514592651645 0.0501156998674241-0.0034654566136460 0.1501639558342179
  4-0.0003735756740661 0.0501732728306823-0.0038390322877122 0.2003372286649002
  5 0.0009829200513762 0.0501919516143856-0.0028561122363360 0.2505291802792858
  6 0.0029141799764308 0.0501428056118168 0.0000580677400948 0.3006719858911026
  7 0.0054132615310267 0.0499970966129952 0.0054713292711215 0.3506690825040978
  8 0.0084687837865132 0.0497264335364439 0.0139401130576347 0.4003955160405417
  9 0.0120633394191050 0.0493029943471183 0.0260034524767397 0.4496985103876600
 10 0.0161716623600090 0.0486998273761630 0.0421751148367486 0.4983983377638230
 11 0.0207585511322367 0.0478912442581626 0.0629336659689853 0.5462895820219856
 12 0.0257765478740990 0.0468533167015507 0.0887102138430843 0.5931428987235363
 13 0.0311633730493853 0.0455644893078458 0.1198735868924696 0.6387073880313821
 14 0.0368391158442262 0.0440063206553765 0.1567127027366958 0.6827137086867585
 15 0.0427031802506397 0.0421643648631652 0.1994158829873354 0.7248780735499237
 16 0.0486309868367616 0.0400292058506332 0.2480468698240970 0.7649072794005569
 17 0.0544704302037591 0.0375976565087951 0.3025173000278562 0.8025049359093520
 18 0.0600380921294285 0.0348741349986072 0.3625553921572847 0.8373790709079592
 19 0.0651152103984763 0.0318722303921358 0.4276706025557610 0.8692513013000949
 20 0.0694434033194839 0.0286164698722119 0.4971140058752449 0.8978677711723068
 21 0.0727201499285569 0.0251442997062377 0.5698341558038018 0.9230120708785445
 22 0.0745940258796570 0.0215082922098099 0.6444281816834588 0.9445203630883544
 23 0.0746596950216180 0.0177785909158270 0.7190878767050768 0.9622989540041814
 24 0.0724526566618460 0.0140456061647461 0.7915405333669228 0.9763445601689276
 25 0.0674437485167025 0.0104229733316538 0.8589842818836253 0.9867675335005814
 26 0.0590334053485720 0.0070507859058187 0.9180176872321973 0.9938183194064002
 27 0.0465456732896125 0.0040991156383901 0.9645633605218099 0.9979174350447904
 28 0.0292219798521905 0.0017718319739095 0.9937853403740005 0.9996892670186999
 29 0.0062146596259994 0.0003107329813000 0.9999999999999999 0.9999999999999999

 ndtfast, nfast =   20  29   nfast/ndtfast =  1.45000

 Centers of gravity and integrals (values must be 1, 1, approx 1/2, 1, 1):

    1.000000000000 1.060707743385 0.530353871693 1.000000000000 1.000000000000

 Power filter parameters, Fgamma, gamma =  0.28400   0.14200

 Metrics information for Grid 01:
 ===============================

 Minimum X-grid spacing, DXmin =  9.99837907E-01 km
 Maximum X-grid spacing, DXmax =  1.00198892E+00 km
 Minimum Y-grid spacing, DYmin =  9.97464092E-01 km
 Maximum Y-grid spacing, DYmax =  9.99572764E-01 km
 Minimum Z-grid spacing, DZmin =  1.92323647E-01 m
 Maximum Z-grid spacing, DZmax =  1.39276587E+02 m

 Minimum barotropic Courant Number =  1.40105143E-02
 Maximum barotropic Courant Number =  2.21006494E-01
 Maximum Coriolis   Courant Number =  1.62970026E-03

 Horizontal mixing scaled by grid size, GRDMAX =  1.00059307E+00 km

 Minimum horizontal viscosity coefficient =  8.32455255E+00 m2/s
 Maximum horizontal viscosity coefficient =  8.33827556E+00 m2/s

 NLM: GET_STATE - Reading state initial conditions,                       2020-01-15 00:00:00.00
                   (Grid 01, t = 43843.0000, File: sd_rst.nc, Rec=0002, Index=1)
                - free-surface
                   (Min =  5.24412981E-02 Max =  1.62084108E-01)
                - RHS of free-surface equation
                   (Min = -1.62642195E+03 Max =  1.04964379E+03)
                - vertically integrated u-momentum component
                   (Min = -2.18792311E-01 Max =  1.65890105E-01)
                - RHS of vertically integrated u-momentum
                   (Min = -1.18128010E+07 Max =  3.62833211E+06)
                - vertically integrated v-momentum component
                   (Min = -2.36624948E-01 Max =  1.69749173E-01)
                - RHS of vertically integrated v-momentum
                   (Min = -8.41605997E+06 Max =  3.01729640E+06)
                - u-momentum component
                   (Min = -4.28889794E-01 Max =  3.09983227E-01)
                - RHS of total u-momentum
                   (Min = -1.16001697E+07 Max =  3.43462504E+06)
                - v-momentum component
                   (Min = -5.04610827E-01 Max =  3.47283874E-01)
                - RHS of total v-momentum
                   (Min = -8.23576857E+06 Max =  2.84126535E+06)
                - potential temperature
                   (Min =  1.65836789E+00 Max =  1.64439034E+01)
                - salinity
                   (Min =  3.33337759E+01 Max =  3.46605469E+01)
                - vertical viscosity coefficient
                   (Min =  0.00000000E+00 Max =  2.14710117E+00)
                - temperature vertical diffusion coefficient
                   (Min =  0.00000000E+00 Max =  2.91464990E+00)
                - salinity vertical diffusion coefficient
                   (Min =  0.00000000E+00 Max =  2.91464990E+00)
                - turbulent kinetic energy
                   (Min =  0.00000000E+00 Max =  6.12055864E-03)
                - turbulent generic length scale
                   (Min =  0.00000000E+00 Max =  9.93330229E-04)
                - vertical mixing turbulent length scale
                   (Min =  0.00000000E+00 Max =  3.99101955E+01)
                - Turbulent kinetic energy vertical diffusion coefficient
                   (Min =  0.00000000E+00 Max =  2.14709617E+00)
                - Turbulent length scale vertical diffusion coefficient
                   (Min =  0.00000000E+00 Max =  1.65161359E+00)
    GET_2DFLD   - surface u-wind component,                        2020-01-14 22:30:00.00
                   (Grid=01, Rec=0000112, Index=1, File: MERRA_Uwind_3hours_2020_SD.nc)
                   (Tmin=      43829.0625 Tmax=      44194.9375)      t =      43842.9375
                   (Min =  2.49556001E+00 Max =  5.91790209E+00)      regrid = T
    GET_2DFLD   - surface v-wind component,                        2020-01-14 22:30:00.00
                   (Grid=01, Rec=0000112, Index=1, File: MERRA_Vwind_3hours_2020_SD.nc)
                   (Tmin=      43829.0625 Tmax=      44194.9375)      t =      43842.9375
                   (Min = -6.58643103E+00 Max =  1.01876251E+00)      regrid = T
    GET_2DFLD   - surface air pressure,                            2020-01-14 22:30:00.00
                   (Grid=01, Rec=0000112, Index=1, File: MERRA_Pair_3hours_2020_SD.nc)
                   (Tmin=      43829.0625 Tmax=      44194.9375)      t =      43842.9375
                   (Min =  1.01574746E+03 Max =  1.01994705E+03)      regrid = T
    GET_2DFLD   - surface air temperature,                         2020-01-14 22:30:00.00
                   (Grid=01, Rec=0000112, Index=1, File: MERRA_Tair_3hours_2020_SD.nc)
                   (Tmin=      43829.0625 Tmax=      44194.9375)      t =      43842.9375
                   (Min =  1.29785884E+01 Max =  1.59587524E+01)      regrid = T
    GET_2DFLD   - surface air relative humidity,                   2020-01-14 22:30:00.00
                   (Grid=01, Rec=0000112, Index=1, File: MERRA_Qair_3hours_2020_SD.nc)
                   (Tmin=      43829.0625 Tmax=      44194.9375)      t =      43842.9375
                   (Min =  5.27409547E-03 Max =  8.62566199E-03)      regrid = T
    GET_2DFLD   - solar shortwave radiation flux,                  2020-01-14 22:30:00.00
